!----------------------------------------------------------------------------------
! Users should add all user specific namelist changes below in the form of 
! namelist_var = new_namelist_value 
!
! EXCEPTIONS: 
! Set use_cndv           by the compset you use and the CLM_BLDNML_OPTS -dynamic_vegetation setting
! Set use_vichydro       by the compset you use and the CLM_BLDNML_OPTS -vichydro           setting
! Set use_cn             by the compset you use and CLM_BLDNML_OPTS -bgc  setting
! Set use_crop           by the compset you use and CLM_BLDNML_OPTS -crop setting
! Set spinup_state       by the CLM_BLDNML_OPTS -bgc_spinup      setting
! Set irrigate           by the CLM_BLDNML_OPTS -irrig .true.    setting
! Set co2_ppmv           with CCSM_CO2_PPMV                      option
! Set dtime              with L_NCPL                             option
! Set fatmlndfrc         with LND_DOMAIN_PATH/LND_DOMAIN_FILE    options
! Set finidat            with RUN_REFCASE/RUN_REFDATE/RUN_REFTOD options for hybrid or branch cases
!                        (includes $inst_string for multi-ensemble cases)
!                        or with CLM_FORCE_COLDSTART to do a cold start
!                        or set it with an explicit filename here.
! Set maxpatch_glcmec    with GLC_NEC                            option
! Set glc_do_dynglacier  with GLC_TWO_WAY_COUPLING               env variable
!----------------------------------------------------------------------------------


!fsurdat = '/home/jguo/research/from_KeerZ/SurfaceData/2015-2100urbanveg/surfdata_0.9x1.25_SSP5-8.5_78pfts_CMIP6_simyr2015_GaoUrbanveg2015_c230601.nc'


!finidat ='/home/jguo/projects/cesm/inputdata/cesm2_init/b.e21.BHIST.f09_g17.CMIP6-historical.010_v2/2015-01-01/b.e21.BHIST.f09_g17.CMIP6-historical.010_v2.clm2.r.2015-01-01-00000.nc'

use_init_interp = .true.


!h0 stream(monthly average, grid-level)
hist_mfilt(1) = 1
hist_dov2xy(1) = .true.
hist_nhtfrq(1) = 0